Version 4
SHEET 1 1904 752
WIRE -288 64 -496 64
WIRE -128 64 -288 64
WIRE 64 64 -64 64
WIRE 160 64 64 64
WIRE 336 64 224 64
WIRE 528 64 336 64
WIRE -496 176 -496 64
WIRE -288 192 -288 64
WIRE 336 192 336 64
WIRE 528 192 528 64
WIRE 816 192 816 128
WIRE 64 208 64 64
WIRE 64 208 32 208
WIRE -32 224 -96 224
WIRE 64 240 32 240
WIRE 64 336 64 240
WIRE 816 352 816 272
WIRE -496 368 -496 256
WIRE -288 368 -288 256
WIRE -288 368 -496 368
WIRE 64 368 64 336
WIRE 64 368 -288 368
WIRE 336 368 336 256
WIRE 336 368 64 368
WIRE 528 368 528 272
WIRE 528 368 336 368
WIRE 336 400 336 368
FLAG 336 400 0
FLAG 816 128 G
FLAG -96 224 G
FLAG 816 352 S
FLAG 64 336 S
FLAG 528 64 OUT
FLAG -496 64 IN
SYMBOL cap 320 192 R0
SYMATTR InstName C1
SYMATTR Value 100µ
SYMATTR SpiceLine V=50 Irms=620m Rser=0.18
SYMBOL cap -304 192 R0
SYMATTR InstName C2
SYMATTR Value 22µ
SYMATTR SpiceLine V=50 Irms=195m Rser=0.91
SYMBOL voltage -496 160 R0
WINDOW 123 0 0 Left 0
WINDOW 39 0 0 Left 0
SYMATTR InstName SOURCE
SYMATTR Value 5
SYMBOL voltage 816 176 R0
WINDOW 123 0 0 Left 0
WINDOW 39 0 0 Left 0
SYMATTR InstName V2
SYMATTR Value PULSE(0 10 0 10n 10n {0.54*40u} 40u)
SYMBOL res 512 176 R0
SYMATTR InstName LOAD
SYMATTR Value 16.67
SYMBOL AutoGenerated\\STP16NF06L 0 224 R0
SYMATTR InstName S1
SYMBOL AutoGenerated\\MBR760 192 64 R0
SYMATTR InstName D1
SYMBOL AutoGenerated\\1415440C -96 64 R0
SYMATTR InstName L1
TEXT -528 424 Left 2 !.tran 0 10m 6m startup
TEXT 1416 40 Left 2 !.meas Vo AVG V(OUT)
TEXT 1416 96 Left 2 !.meas Io AVG I(LOAD)
TEXT 1416 152 Left 2 !.meas Pout AVG V(OUT)*I(LOAD)
TEXT 1416 208 Left 2 !.meas Pin AVG -V(IN)*I(SOURCE)
TEXT 1416 264 Left 2 !.meas Eff param Pout/pin
TEXT 1416 320 Left 2 !.meas ID AVG Ix(D1:1)
TEXT 1416 376 Left 2 !.meas IL AVG Ix(L1:1)
TEXT 1416 432 Left 2 !.meas IS AVG Ix(S1:D)
