Version 4
SHEET 1 1920 752
WIRE -288 64 -496 64
WIRE -128 64 -288 64
WIRE 64 64 -64 64
WIRE 112 64 64 64
WIRE 160 64 112 64
WIRE 288 64 160 64
WIRE 448 64 352 64
WIRE 640 64 448 64
WIRE 160 128 160 64
WIRE -496 176 -496 64
WIRE -288 192 -288 64
WIRE 448 192 448 64
WIRE 640 192 640 64
WIRE 928 192 928 128
WIRE 64 208 64 64
WIRE 64 208 32 208
WIRE -32 224 -96 224
WIRE 64 240 32 240
WIRE 160 272 160 208
WIRE 64 336 64 240
WIRE 928 352 928 272
WIRE -496 368 -496 256
WIRE -288 368 -288 256
WIRE -288 368 -496 368
WIRE 64 368 64 336
WIRE 64 368 -288 368
WIRE 160 368 160 336
WIRE 160 368 64 368
WIRE 448 368 448 256
WIRE 448 368 160 368
WIRE 640 368 640 272
WIRE 640 368 448 368
WIRE 448 400 448 368
FLAG 448 400 0
FLAG 928 128 G
FLAG -96 224 G
FLAG 928 352 S
FLAG 64 336 S
FLAG 640 64 OUT
FLAG -496 64 IN
FLAG 112 64 Switching_node
SYMBOL cap 432 192 R0
SYMATTR InstName C1
SYMATTR Value 100µ
SYMATTR SpiceLine V=50 Irms=620m Rser=0.18
SYMBOL cap -304 192 R0
SYMATTR InstName C2
SYMATTR Value 22µ
SYMATTR SpiceLine V=50 Irms=195m Rser=0.91
SYMBOL voltage -496 160 R0
WINDOW 123 0 0 Left 0
WINDOW 39 0 0 Left 0
SYMATTR InstName SOURCE
SYMATTR Value 5
SYMBOL voltage 928 176 R0
WINDOW 123 0 0 Left 0
WINDOW 39 0 0 Left 0
SYMATTR InstName V2
SYMATTR Value PULSE(0 10 0 10n 10n {0.54*40u} 40u)
SYMBOL res 624 176 R0
SYMATTR InstName LOAD
SYMATTR Value 16.67
SYMBOL AutoGenerated\\STP16NF06L 0 224 R0
SYMATTR InstName S1
SYMBOL AutoGenerated\\MBR760 320 64 R0
SYMATTR InstName D1
SYMBOL AutoGenerated\\1415440C -96 64 R0
SYMATTR InstName L1
SYMBOL cap 144 272 R0
SYMATTR InstName C3
SYMATTR Value 0.66n
SYMBOL res 144 112 R0
SYMATTR InstName R1
SYMATTR Value 16
TEXT -528 424 Left 2 !.tran 0 6.2m 6m startup
TEXT 1528 40 Left 2 !.meas Vo AVG V(OUT)
TEXT 1528 96 Left 2 !.meas Io AVG I(LOAD)
TEXT 1528 152 Left 2 !.meas Pout AVG V(OUT)*I(LOAD)
TEXT 1528 208 Left 2 !.meas Pin AVG -V(IN)*I(SOURCE)
TEXT 1528 264 Left 2 !.meas Eff param Pout/pin
TEXT 1528 320 Left 2 !.meas ID AVG Ix(D1:1)
TEXT 1528 376 Left 2 !.meas IL AVG Ix(L1:1)
TEXT 1528 432 Left 2 !.meas IS AVG Ix(S1:D)
